Version 4
SHEET 1 2032 1212
WIRE -800 -496 -1104 -496
WIRE -464 -496 -800 -496
WIRE -800 -448 -800 -496
WIRE -464 -448 -464 -496
WIRE -848 -368 -912 -368
WIRE -512 -368 -576 -368
WIRE 256 -352 176 -352
WIRE 672 -352 592 -352
WIRE 1360 -352 1280 -352
WIRE -848 -336 -912 -336
WIRE -512 -336 -576 -336
WIRE -1104 -288 -1104 -496
WIRE 176 -288 176 -352
WIRE 592 -288 592 -352
WIRE 1280 -288 1280 -352
WIRE -800 -272 -800 -352
WIRE -336 -272 -800 -272
WIRE -192 -272 -256 -272
WIRE -64 -272 -192 -272
WIRE -192 -208 -192 -272
WIRE -64 -208 -64 -272
WIRE 176 -160 176 -208
WIRE 592 -160 592 -208
WIRE 1280 -160 1280 -208
WIRE -464 -96 -464 -352
WIRE -192 -96 -192 -144
WIRE -192 -96 -464 -96
WIRE -64 -96 -64 -128
WIRE -64 -96 -192 -96
WIRE -800 -48 -800 -272
WIRE -464 -48 -464 -96
WIRE -848 32 -912 32
WIRE -512 32 -576 32
WIRE -848 64 -912 64
WIRE -512 64 -576 64
WIRE -48 64 -64 64
WIRE 64 64 16 64
WIRE 160 64 144 64
WIRE -64 96 -64 64
WIRE -64 96 -144 96
WIRE 160 96 160 64
WIRE 192 96 160 96
WIRE -1104 112 -1104 -208
WIRE -800 112 -800 48
WIRE -800 112 -1104 112
WIRE -464 112 -464 48
WIRE -464 112 -800 112
WIRE -64 144 -64 96
WIRE 0 144 -64 144
WIRE 160 144 160 96
WIRE 160 144 80 144
WIRE -800 160 -800 112
WIRE -144 160 -144 96
WIRE -144 304 -144 240
WIRE -48 336 -64 336
WIRE 64 336 16 336
WIRE 160 336 144 336
WIRE -64 368 -64 336
WIRE -64 368 -144 368
WIRE 160 368 160 336
WIRE 192 368 160 368
WIRE -64 416 -64 368
WIRE 0 416 -64 416
WIRE 160 416 160 368
WIRE 160 416 80 416
WIRE -144 432 -144 368
WIRE -144 576 -144 512
WIRE -48 608 -64 608
WIRE 64 608 16 608
WIRE 160 608 144 608
WIRE -64 640 -64 608
WIRE -64 640 -144 640
WIRE 160 640 160 608
WIRE 192 640 160 640
WIRE -64 688 -64 640
WIRE 0 688 -64 688
WIRE 160 688 160 640
WIRE 160 688 80 688
WIRE -144 704 -144 640
WIRE -144 848 -144 784
WIRE -48 880 -64 880
WIRE 64 880 16 880
WIRE 160 880 144 880
WIRE -64 912 -64 880
WIRE -64 912 -144 912
WIRE 160 912 160 880
WIRE 192 912 160 912
WIRE -64 960 -64 912
WIRE 0 960 -64 960
WIRE 160 960 160 912
WIRE 160 960 80 960
WIRE -144 976 -144 912
WIRE -144 1120 -144 1056
FLAG 176 -160 0
FLAG 256 -352 Ref
FLAG 592 -160 0
FLAG 672 -352 CarrierP
FLAG -800 160 0
FLAG -64 -272 Vout+
FLAG 1280 -160 0
FLAG 1360 -352 CarrierN
FLAG -64 -96 Vout-
FLAG 192 96 S1
FLAG 192 368 S2
FLAG 192 640 S3
FLAG 192 912 S4
FLAG -144 304 S1N
FLAG -144 576 S2N
FLAG -144 848 S3N
FLAG -144 1120 S4N
FLAG -912 -368 S1
FLAG -912 32 S2
FLAG -912 -336 S1N
FLAG -912 64 S2N
FLAG -576 -368 S3
FLAG -576 -336 S3N
FLAG -576 32 S4
FLAG -576 64 S4N
FLAG -1104 -496 Vdc
FLAG -800 -272 Va
FLAG -464 -96 Vb
SYMBOL voltage 176 -304 R0
WINDOW 123 0 0 Left 0
WINDOW 39 0 0 Left 0
SYMATTR InstName V1
SYMATTR Value SINE(0 336 50)
SYMBOL voltage 592 -304 R0
WINDOW 123 0 0 Left 0
WINDOW 39 0 0 Left 0
SYMATTR InstName V2
SYMATTR Value PULSE(0 400 0 {0.5/fs} {0.5/fs} 0ms {1/fs})
SYMBOL bv -144 144 R0
SYMATTR InstName B1
SYMATTR Value V=if(((v(ref)>=v(carrierp) & v(ref)>=0) | (v(ref)>=v(carriern) & v(ref)<0))&delay((v(ref)>=v(carrierp) & v(ref)>=0) | (v(ref)>=v(carriern) & v(ref)<0),DeadTime),15,-5)
SYMBOL bv -144 688 R0
SYMATTR InstName B2
SYMATTR Value V=if((v(ref)<0)&delay((v(ref)<0),DeadTime),15,-5)
SYMBOL ind -240 -288 R90
WINDOW 0 5 56 VBottom 2
WINDOW 3 32 56 VTop 2
SYMATTR InstName L1
SYMATTR Value 0.5m
SYMATTR SpiceLine Rser=30m
SYMBOL res -80 -224 R0
SYMATTR InstName RLoad
SYMATTR Value 26.45
SYMBOL voltage -1104 -304 R0
WINDOW 123 0 0 Left 0
WINDOW 39 0 0 Left 0
SYMATTR InstName Vdc
SYMATTR Value 400
SYMBOL cap -208 -208 R0
SYMATTR InstName C1
SYMATTR Value 1µ
SYMATTR SpiceLine Rser=0.1m
SYMBOL bv -144 416 R0
SYMATTR InstName B3
SYMATTR Value V=if(((v(ref)<v(carriern) & v(ref)<0) | (v(ref)<v(carrierp) & v(ref)>=0))&delay(((v(ref)<v(carriern) & v(ref)<0) | (v(ref)<v(carrierp) & v(ref)>=0)),DeadTime),15,-5)
SYMBOL bv -144 960 R0
SYMATTR InstName B4
SYMATTR Value V=if((v(ref)>=0)&delay((v(ref)>=0),DeadTime),15,-5)
SYMBOL voltage 1280 -304 R0
WINDOW 123 0 0 Left 0
WINDOW 39 0 0 Left 0
SYMATTR InstName V3
SYMATTR Value PULSE(-400 0 0 {0.5/fs} {0.5/fs} 0ms {1/fs})
SYMBOL res 160 48 R90
WINDOW 0 0 56 VBottom 2
WINDOW 3 32 56 VTop 2
SYMATTR InstName R1
SYMATTR Value 15
SYMBOL diode -48 80 R270
WINDOW 0 32 32 VTop 2
WINDOW 3 0 32 VBottom 2
SYMATTR InstName D1
SYMBOL res 96 128 R90
WINDOW 0 0 56 VBottom 2
WINDOW 3 32 56 VTop 2
SYMATTR InstName R2
SYMATTR Value 30
SYMBOL res 160 320 R90
WINDOW 0 0 56 VBottom 2
WINDOW 3 32 56 VTop 2
SYMATTR InstName R3
SYMATTR Value 15
SYMBOL diode -48 352 R270
WINDOW 0 32 32 VTop 2
WINDOW 3 0 32 VBottom 2
SYMATTR InstName D2
SYMBOL res 96 400 R90
WINDOW 0 0 56 VBottom 2
WINDOW 3 32 56 VTop 2
SYMATTR InstName R4
SYMATTR Value 30
SYMBOL res 160 592 R90
WINDOW 0 0 56 VBottom 2
WINDOW 3 32 56 VTop 2
SYMATTR InstName R5
SYMATTR Value 15
SYMBOL diode -48 624 R270
WINDOW 0 32 32 VTop 2
WINDOW 3 0 32 VBottom 2
SYMATTR InstName D3
SYMBOL res 96 672 R90
WINDOW 0 0 56 VBottom 2
WINDOW 3 32 56 VTop 2
SYMATTR InstName R6
SYMATTR Value 30
SYMBOL res 160 864 R90
WINDOW 0 0 56 VBottom 2
WINDOW 3 32 56 VTop 2
SYMATTR InstName R7
SYMATTR Value 15
SYMBOL diode -48 896 R270
WINDOW 0 32 32 VTop 2
WINDOW 3 0 32 VBottom 2
SYMATTR InstName D4
SYMBOL res 96 944 R90
WINDOW 0 0 56 VBottom 2
WINDOW 3 32 56 VTop 2
SYMATTR InstName R8
SYMATTR Value 30
SYMBOL AutoGenerated\\UF3C065040K4S -832 -400 R0
SYMATTR InstName U1
SYMBOL AutoGenerated\\UF3C065040K4S -832 0 R0
SYMATTR InstName U2
SYMBOL AutoGenerated\\UF3C065040K4S -496 -400 R0
SYMATTR InstName U3
SYMBOL AutoGenerated\\UF3C065040K4S -496 0 R0
SYMATTR InstName U4
TEXT 144 -136 Left 2 !.tran 0 21ms 1ms 50n
TEXT 168 -480 Left 2 !.param fs=50000\n.param DeadTime=300n
TEXT 168 -520 Left 2 !.inc "C:\\Users\\ycay\\Desktop\\FullBridge_Modulations\\Transformless_SP_Inverter\\FullBridge_LTspice\\UF3C065040K4S\\Options.txt"
TEXT 168 -560 Left 2 !.lib "C:\\Users\\ycay\\Desktop\\FullBridge_Modulations\\Transformless_SP_Inverter\\FullBridge_LTspice\\UF3C065040K4S\\UF3C065040K4S.txt"
